Circuit: * C:\Users\Edwin\Downloads\SYNTHMANIA\VCA\Simulations\VCA\VCA.asc

WARNING: Less than two connections to node N005.  This node is used by V4.
Early termination of direct N-R iteration.
Direct Newton iteration failed to find .op point.  (Use ".option noopiter" to skip.)
Starting Gmin stepping
Gmin = 10
vernier = 0.5
vernier = 0.25
vernier = 0.125
Gmin = 6.49
vernier = 0.0625
vernier = 0.03125
vernier = 0.015625
vernier = 0.0078125
vernier = 0.00390625
Gmin = 6.67976
vernier = 0.00195313
vernier = 0.000976563
vernier = 0.000488281
Gmin = 0
Gmin stepping succeeded in finding the operating point.


Date: Sat Dec 04 17:37:47 2021
Total elapsed time: 0.997 seconds.

tnom = 27
temp = 27
method = modified trap
totiter = 21486
traniter = 20052
tranpoints = 10027
accept = 10026
rejected = 1
matrix size = 108
fillins = 706
solver = Normal
Thread vector: 6.4/5.1[2] 3.7/3.0[2] 4.6/2.5[2] 0.8/1.3[1]  2592/500
Matrix Compiler1: 62.69 KB object code size  15.0/9.1/[2.5]
Matrix Compiler2: 21.41 KB object code size  5.6/3.4/[1.1]

