Circuit: * C:\Users\Edwin\Downloads\SYNTHMANIA\VCA\Simulations\VCA\VCA.asc

WARNING: Less than two connections to node N005.  This node is used by V4.
Early termination of direct N-R iteration.
Direct Newton iteration failed to find .op point.  (Use ".option noopiter" to skip.)
Starting Gmin stepping
Gmin = 10
vernier = 0.5
vernier = 0.25
vernier = 0.125
Gmin = 6.49
vernier = 0.0625
vernier = 0.03125
vernier = 0.015625
vernier = 0.0078125
vernier = 0.00390625
Gmin = 6.67976
vernier = 0.00195313
vernier = 0.000976563
vernier = 0.000488281
Gmin = 0
Gmin stepping succeeded in finding the operating point.


Date: Sat Dec 04 17:19:12 2021
Total elapsed time: 1.056 seconds.

tnom = 27
temp = 27
method = modified trap
totiter = 21604
traniter = 20064
tranpoints = 10033
accept = 10032
rejected = 1
matrix size = 107
fillins = 706
solver = Normal
Thread vector: 8.6/5.1[2] 2.3/2.8[1] 3.9/2.2[2] 0.8/1.5[1]  2592/500
Matrix Compiler1: 62.53 KB object code size  10.3/4.7/[2.3]
Matrix Compiler2: 21.28 KB object code size  4.7/3.3/[1.5]

