Circuit: * C:\Users\Edwin\Downloads\SYNTHMANIA\VCA\Simulations\VCA\VCA.asc

WARNING: Less than two connections to node N007.  This node is used by V4.
WARNING: Less than two connections to node NC_01.  This node is used by R27.
Early termination of direct N-R iteration.
Direct Newton iteration failed to find .op point.  (Use ".option noopiter" to skip.)
Starting Gmin stepping
Gmin = 10
vernier = 0.5
vernier = 0.25
vernier = 0.125
Gmin = 6.49
vernier = 0.0625
vernier = 0.03125
vernier = 0.015625
vernier = 0.0078125
vernier = 0.00390625
Gmin = 6.67976
vernier = 0.00195313
vernier = 0.000976563
vernier = 0.000488281
Gmin = 0
Gmin stepping failed

Starting source stepping with srcstepmethod=0
Source Step = 3.0303%
Source Step = 33.3333%
Source Step = 63.6364%
Source Step = 93.9394%
Source stepping succeeded in finding the operating point.


Date: Tue Dec 28 16:29:04 2021
Total elapsed time: 1.471 seconds.

tnom = 27
temp = 27
method = modified trap
totiter = 24402
traniter = 22741
tranpoints = 11146
accept = 10858
rejected = 288
matrix size = 111
fillins = 682
solver = Normal
Thread vector: 7.1/4.9[2] 4.6/3.6[2] 4.1/2.8[2] 0.8/1.4[1]  2592/500
Matrix Compiler1: 69.78 KB object code size  12.3/7.8/[4.1]
Matrix Compiler2: 21.34 KB object code size  4.2/3.2/[0.9]

