Circuit: * C:\Users\Edwin\Downloads\SYNTHMANIA\VCA\Simulations\VCA\VCA.asc

WARNING: Less than two connections to node N002.  This node is used by V4.
Early termination of direct N-R iteration.
Direct Newton iteration failed to find .op point.  (Use ".option noopiter" to skip.)
Starting Gmin stepping
Gmin = 10
vernier = 0.5
vernier = 0.25
vernier = 0.125
Gmin = 6.49
vernier = 0.0625
vernier = 0.03125
vernier = 0.015625
vernier = 0.0078125
vernier = 0.00390625
Gmin = 6.67976
vernier = 0.00195313
vernier = 0.000976563
vernier = 0.000488281
Gmin = 0
Gmin stepping succeeded in finding the operating point.


Date: Sun Nov 28 14:46:08 2021
Total elapsed time: 0.426 seconds.

tnom = 27
temp = 27
method = modified trap
totiter = 25081
traniter = 23695
tranpoints = 11799
accept = 11469
rejected = 330
matrix size = 77
fillins = 277
solver = Normal
Matrix Compiler1: 21.12 KB object code size  3.2/1.7/[0.9]
Matrix Compiler2: 11.08 KB object code size  1.9/4.6/[0.6]

