Circuit: * C:\Users\Edwin\Downloads\SYNTHMANIA\VCA\Simulations\VCA\VCA.asc

WARNING: Less than two connections to node N003.  This node is used by V4.
Early termination of direct N-R iteration.
Direct Newton iteration failed to find .op point.  (Use ".option noopiter" to skip.)
Starting Gmin stepping
Gmin = 10
vernier = 0.5
vernier = 0.25
vernier = 0.125
Gmin = 6.49
vernier = 0.0625
vernier = 0.03125
vernier = 0.015625
vernier = 0.0078125
vernier = 0.00390625
Gmin = 6.67976
vernier = 0.00195313
vernier = 0.000976563
vernier = 0.000488281
Gmin = 0
Gmin stepping succeeded in finding the operating point.


Date: Sat Dec 04 17:02:30 2021
Total elapsed time: 1.152 seconds.

tnom = 27
temp = 27
method = modified trap
totiter = 21474
traniter = 20068
tranpoints = 10035
accept = 10033
rejected = 2
matrix size = 107
fillins = 717
solver = Normal
Thread vector: 7.3/6.1[2] 3.6/3.1[2] 4.6/2.7[2] 0.8/1.3[1]  2592/500
Matrix Compiler1: 62.61 KB object code size  12.5/4.9/[3.4]
Matrix Compiler2: 21.49 KB object code size  4.6/5.9/[1.3]

