Circuit: * C:\Users\Edwin\Downloads\SYNTHMANIA\VCA\Simulations\VCA\VCA.asc

WARNING: Less than two connections to node N002.  This node is used by V4.
Early termination of direct N-R iteration.
Direct Newton iteration failed to find .op point.  (Use ".option noopiter" to skip.)
Starting Gmin stepping
Gmin = 10
vernier = 0.5
vernier = 0.25
vernier = 0.125
Gmin = 6.49
vernier = 0.0625
vernier = 0.03125
vernier = 0.015625
vernier = 0.0078125
vernier = 0.00390625
Gmin = 6.67976
vernier = 0.00195313
vernier = 0.000976563
vernier = 0.000488281
Gmin = 0
Gmin stepping succeeded in finding the operating point.


Date: Sun Nov 28 15:25:44 2021
Total elapsed time: 0.457 seconds.

tnom = 27
temp = 27
method = modified trap
totiter = 21986
traniter = 20521
tranpoints = 10064
accept = 10040
rejected = 24
matrix size = 78
fillins = 281
solver = Normal
Matrix Compiler1: 21.25 KB object code size  5.2/2.9/[1.1]
Matrix Compiler2: 11.23 KB object code size  2.2/1.9/[0.6]

