Circuit: * C:\Users\Edwin\Downloads\SYNTHMANIA\VCA\Simulations\VCA\VCA.asc

WARNING: Less than two connections to node N005.  This node is used by V4.
WARNING: Less than two connections to node NC_01.  This node is used by R27.
WARNING: Less than two connections to node N035.  This node is used by V8.
Early termination of direct N-R iteration.
Direct Newton iteration failed to find .op point.  (Use ".option noopiter" to skip.)
Starting Gmin stepping
Gmin = 10
vernier = 0.5
vernier = 0.25
vernier = 0.125
Gmin = 6.49
vernier = 0.0625
vernier = 0.03125
vernier = 0.015625
vernier = 0.0078125
vernier = 0.00390625
Gmin = 6.67976
vernier = 0.00195313
vernier = 0.000976563
vernier = 0.000488281
Gmin = 0
Gmin stepping failed

Starting source stepping with srcstepmethod=0
Source Step = 3.0303%
Source Step = 33.3333%
Source Step = 63.6364%
Source Step = 93.9394%
Source stepping succeeded in finding the operating point.


Date: Sat Jan 01 16:46:39 2022
Total elapsed time: 3.019 seconds.

tnom = 27
temp = 27
method = modified trap
totiter = 23552
traniter = 21848
tranpoints = 10772
accept = 10624
rejected = 148
matrix size = 194
fillins = 1561
solver = Normal
Thread vector: 23.3/17.5[3] 9.0/4.8[3] 10.0/7.5[3] 1.5/2.7[1]  2592/500
Matrix Compiler1: 199.81 KB object code size  44.1/30.7/[16.4]
Matrix Compiler2: 43.95 KB object code size  10.5/13.3/[2.9]

