Circuit: * C:\Users\Edwin\Downloads\SYNTHMANIA\VCA\Simulations\VCA\VCA.asc

WARNING: Less than two connections to node N005.  This node is used by V4.
Early termination of direct N-R iteration.
Direct Newton iteration failed to find .op point.  (Use ".option noopiter" to skip.)
Starting Gmin stepping
Gmin = 10
vernier = 0.5
vernier = 0.25
vernier = 0.125
Gmin = 6.49
vernier = 0.0625
vernier = 0.03125
vernier = 0.015625
vernier = 0.0078125
vernier = 0.00390625
Gmin = 6.67976
vernier = 0.00195313
vernier = 0.000976563
vernier = 0.000488281
Gmin = 0
Gmin stepping succeeded in finding the operating point.


Date: Sat Dec 04 18:50:51 2021
Total elapsed time: 1.897 seconds.

tnom = 27
temp = 27
method = modified trap
totiter = 24173
traniter = 22745
tranpoints = 11157
accept = 10875
rejected = 282
matrix size = 108
fillins = 705
solver = Normal
Thread vector: 16.7/9.3[2] 4.2/7.2[1] 4.9/6.8[1] 1.1/1.8[1]  2592/500
Matrix Compiler1: 62.69 KB object code size  14.0/8.8/[3.2]
Matrix Compiler2: 21.39 KB object code size  4.3/5.1/[3.2]

