Circuit: * C:\Users\Edwin\Downloads\SYNTHMANIA\VCA\Simulations\VCA\VCA.asc

WARNING: Less than two connections to node N007.  This node is used by V4.
WARNING: Less than two connections to node NC_01.  This node is used by R27.
Early termination of direct N-R iteration.
Direct Newton iteration failed to find .op point.  (Use ".option noopiter" to skip.)
Starting Gmin stepping
Gmin = 10
vernier = 0.5
vernier = 0.25
vernier = 0.125
Gmin = 6.49
vernier = 0.0625
vernier = 0.03125
vernier = 0.015625
vernier = 0.0078125
vernier = 0.00390625
Gmin = 6.67976
vernier = 0.00195313
vernier = 0.000976563
vernier = 0.000488281
Gmin = 0
Gmin stepping failed

Starting source stepping with srcstepmethod=0
Source Step = 3.0303%
Source Step = 33.3333%
Source Step = 63.6364%
Source Step = 93.9394%
Source stepping succeeded in finding the operating point.


Date: Thu Dec 30 14:05:35 2021
Total elapsed time: 1.163 seconds.

tnom = 27
temp = 27
method = modified trap
totiter = 24477
traniter = 22813
tranpoints = 11183
accept = 10873
rejected = 310
matrix size = 114
fillins = 690
solver = Normal
Thread vector: 6.7/5.7[2] 2.4/3.2[1] 4.2/2.7[2] 0.7/1.4[1]  2592/500
Matrix Compiler1: 71.65 KB object code size  16.2/5.0/[2.6]
Matrix Compiler2: 21.70 KB object code size  3.8/3.4/[1.0]

