Circuit: * C:\Users\Edwin\Downloads\SYNTHMANIA\VCA\Simulations\VCA\VCA.asc

WARNING: Less than two connections to node N005.  This node is used by V4.
WARNING: Less than two connections to node NC_01.  This node is used by R27.
Early termination of direct N-R iteration.
Direct Newton iteration failed to find .op point.  (Use ".option noopiter" to skip.)
Starting Gmin stepping
Gmin = 10
vernier = 0.5
vernier = 0.25
vernier = 0.125
Gmin = 6.49
vernier = 0.0625
vernier = 0.03125
vernier = 0.015625
vernier = 0.0078125
vernier = 0.00390625
Gmin = 6.67976
vernier = 0.00195313
vernier = 0.000976563
vernier = 0.000488281
Gmin = 0
Gmin stepping failed

Starting source stepping with srcstepmethod=0
Source Step = 3.0303%
Source Step = 33.3333%
Source Step = 63.6364%
Source Step = 93.9394%
Source stepping succeeded in finding the operating point.


Date: Thu Dec 30 14:39:34 2021
Total elapsed time: 2.806 seconds.

tnom = 27
temp = 27
method = modified trap
totiter = 24198
traniter = 22461
tranpoints = 11064
accept = 10823
rejected = 241
matrix size = 196
fillins = 1581
solver = Normal
Thread vector: 16.7/10.6[3] 9.0/4.4[3] 7.9/3.8[3] 2.1/2.5[1]  2592/500
Matrix Compiler1: 196.55 KB object code size  46.1/30.0/[12.7]
Matrix Compiler2: 44.79 KB object code size  11.2/9.0/[3.8]

