Circuit: * C:\Users\Edwin\Downloads\SYNTHMANIA\VCA\Simulations\VCA\VCA.asc

WARNING: Less than two connections to node N005.  This node is used by V4.
WARNING: Less than two connections to node NC_01.  This node is used by R27.
Early termination of direct N-R iteration.
Direct Newton iteration failed to find .op point.  (Use ".option noopiter" to skip.)
Starting Gmin stepping
Gmin = 10
vernier = 0.5
vernier = 0.25
vernier = 0.125
Gmin = 6.49
vernier = 0.0625
vernier = 0.03125
vernier = 0.015625
vernier = 0.0078125
vernier = 0.00390625
Gmin = 6.67976
vernier = 0.00195313
vernier = 0.000976563
vernier = 0.000488281
Gmin = 0
Gmin stepping failed

Starting source stepping with srcstepmethod=0
Source Step = 3.0303%
Source Step = 33.3333%
Source Step = 63.6364%
Source Step = 93.9394%
Source stepping succeeded in finding the operating point.


Date: Tue Dec 28 15:30:26 2021
Total elapsed time: 1.248 seconds.

tnom = 27
temp = 27
method = modified trap
totiter = 24478
traniter = 22812
tranpoints = 11174
accept = 10867
rejected = 307
matrix size = 109
fillins = 677
solver = Normal
Thread vector: 6.5/4.8[2] 4.3/3.1[2] 4.6/3.2[2] 0.7/1.5[1]  2592/500
Matrix Compiler1: 69.28 KB object code size  16.6/9.8/[3.3]
Matrix Compiler2: 21.09 KB object code size  4.0/3.0/[0.9]

