Circuit: * C:\Users\timon\Desktop\Coding\EDI\SYNTH\SYNTHMANIA\ADSR\Simulations\ADSR.asc

Fatal Error: Unknown subcircuit called in:
   xu1 n005 n008 n006 opamp aol=100k gbw=10meg
